7
# auto generated .xyz file (in Angstrom)
    Te       -3.020000        0.000000        0.000000
    Sb       -3.020000       -3.020000        0.000000
    Te        0.000000       -3.020000        0.000000
    Ge        0.000000       -3.020000       -3.020000
    Te       -3.020000       -3.020000       -3.020000
    Sb       -3.020000        0.000000       -3.020000
    Te        0.000000        0.000000       -3.020000

