188
# auto generated .xyz file (in Angstrom)
    Ge        0.000000        0.000000        0.000000
    Te        3.020000        0.000000        0.000000
    Sb        3.020000        3.020000        0.000000
    Te        0.000000        3.020000        0.000000
    Sb        0.000000        3.020000        3.020000
    Te        3.020000        3.020000        3.020000
    Sb        3.020000        0.000000        3.020000
    Te        0.000000        0.000000        3.020000
    Sb        6.040000        0.000000        0.000000
    Te       -9.059999        0.000000        0.000000
    Te        6.040000        3.020000        0.000000
    Sb        6.040000        3.020000        3.020000
    Te       -9.059999        3.020000        3.020000
    Ge       -9.059999        0.000000        3.020000
    Te        6.040000        0.000000        3.020000
    Ge       -6.040000        0.000000        0.000000
    Te       -3.020000        0.000000        0.000000
    Te       -6.040000        3.020000        0.000000
    Ge       -6.040000        3.020000        3.020000
    Te       -3.020000        3.020000        3.020000
    Sb       -3.020000        0.000000        3.020000
    Te       -6.040000        0.000000        3.020000
    Sb        0.000000        6.040000        0.000000
    Te        3.020000        6.040000        0.000000
    Te        0.000000       -9.059999        0.000000
    Te        3.020000       -9.059999        3.020000
    Sb        3.020000        6.040000        3.020000
    Te        0.000000        6.040000        3.020000
    Te       -9.059999        6.040000        0.000000
    Sb       -9.059999       -9.059999        0.000000
    Te        6.040000       -9.059999        0.000000
    Sb        6.040000       -9.059999        3.020000
    Te       -9.059999       -9.059999        3.020000
    Te        6.040000        6.040000        3.020000
    Te       -3.020000        6.040000        0.000000
    Te       -6.040000       -9.059999        0.000000
    Sb       -6.040000       -9.059999        3.020000
    Te       -3.020000       -9.059999        3.020000
    Sb       -3.020000        6.040000        3.020000
    Te       -6.040000        6.040000        3.020000
    Ge        0.000000       -6.040000        0.000000
    Te        3.020000       -6.040000        0.000000
    Sb        3.020000       -3.020000        0.000000
    Te        0.000000       -3.020000        0.000000
    Ge        0.000000       -3.020000        3.020000
    Te        3.020000       -3.020000        3.020000
    Sb        3.020000       -6.040000        3.020000
    Te        0.000000       -6.040000        3.020000
    Ge        6.040000       -6.040000        0.000000
    Te       -9.059999       -6.040000        0.000000
    Ge       -9.059999       -3.020000        0.000000
    Te        6.040000       -3.020000        0.000000
    Ge        6.040000       -3.020000        3.020000
    Te       -9.059999       -3.020000        3.020000
    Sb       -9.059999       -6.040000        3.020000
    Te        6.040000       -6.040000        3.020000
    Sb       -6.040000       -6.040000        0.000000
    Te       -3.020000       -6.040000        0.000000
    Ge       -3.020000       -3.020000        0.000000
    Te       -6.040000       -3.020000        0.000000
    Ge       -6.040000       -3.020000        3.020000
    Te       -3.020000       -3.020000        3.020000
    Te       -6.040000       -6.040000        3.020000
    Ge        0.000000        0.000000        6.040000
    Te        3.020000        0.000000        6.040000
    Te        0.000000        3.020000        6.040000
    Sb        0.000000        3.020000       -9.059999
    Te        3.020000        3.020000       -9.059999
    Sb        3.020000        0.000000       -9.059999
    Te        0.000000        0.000000       -9.059999
    Te       -9.059999        0.000000        6.040000
    Ge       -9.059999        3.020000        6.040000
    Te        6.040000        3.020000        6.040000
    Sb        6.040000        3.020000       -9.059999
    Te       -9.059999        3.020000       -9.059999
    Sb       -9.059999        0.000000       -9.059999
    Te        6.040000        0.000000       -9.059999
    Sb       -6.040000        0.000000        6.040000
    Te       -3.020000        0.000000        6.040000
    Ge       -3.020000        3.020000        6.040000
    Te       -6.040000        3.020000        6.040000
    Te       -3.020000        3.020000       -9.059999
    Te       -6.040000        0.000000       -9.059999
    Sb        0.000000        6.040000        6.040000
    Te        3.020000        6.040000        6.040000
    Sb        3.020000       -9.059999        6.040000
    Te        0.000000       -9.059999        6.040000
    Ge        0.000000       -9.059999       -9.059999
    Te        3.020000       -9.059999       -9.059999
    Ge        3.020000        6.040000       -9.059999
    Te        0.000000        6.040000       -9.059999
    Ge        6.040000        6.040000        6.040000
    Te       -9.059999        6.040000        6.040000
    Sb       -9.059999       -9.059999        6.040000
    Te        6.040000       -9.059999        6.040000
    Ge        6.040000       -9.059999       -9.059999
    Te       -9.059999       -9.059999       -9.059999
    Te        6.040000        6.040000       -9.059999
    Sb       -6.040000        6.040000        6.040000
    Te       -3.020000        6.040000        6.040000
    Sb       -3.020000       -9.059999        6.040000
    Te       -6.040000       -9.059999        6.040000
    Te       -3.020000       -9.059999       -9.059999
    Sb       -3.020000        6.040000       -9.059999
    Te       -6.040000        6.040000       -9.059999
    Ge        0.000000       -6.040000        6.040000
    Te        3.020000       -6.040000        6.040000
    Sb        3.020000       -3.020000        6.040000
    Te        0.000000       -3.020000        6.040000
    Sb        0.000000       -3.020000       -9.059999
    Te        3.020000       -3.020000       -9.059999
    Ge        3.020000       -6.040000       -9.059999
    Te        0.000000       -6.040000       -9.059999
    Sb        6.040000       -6.040000        6.040000
    Te       -9.059999       -6.040000        6.040000
    Sb       -9.059999       -3.020000        6.040000
    Te        6.040000       -3.020000        6.040000
    Ge        6.040000       -3.020000       -9.059999
    Te       -9.059999       -3.020000       -9.059999
    Te        6.040000       -6.040000       -9.059999
    Te       -3.020000       -6.040000        6.040000
    Sb       -3.020000       -3.020000        6.040000
    Te       -6.040000       -3.020000        6.040000
    Ge       -6.040000       -3.020000       -9.059999
    Te       -3.020000       -3.020000       -9.059999
    Te       -6.040000       -6.040000       -9.059999
    Sb        0.000000        0.000000       -6.040000
    Te        3.020000        0.000000       -6.040000
    Sb        3.020000        3.020000       -6.040000
    Te        0.000000        3.020000       -6.040000
    Ge        0.000000        3.020000       -3.020000
    Te        3.020000        3.020000       -3.020000
    Te        0.000000        0.000000       -3.020000
    Sb        6.040000        0.000000       -6.040000
    Te       -9.059999        0.000000       -6.040000
    Te        6.040000        3.020000       -6.040000
    Ge        6.040000        3.020000       -3.020000
    Te       -9.059999        3.020000       -3.020000
    Te        6.040000        0.000000       -3.020000
    Sb       -6.040000        0.000000       -6.040000
    Te       -3.020000        0.000000       -6.040000
    Ge       -3.020000        3.020000       -6.040000
    Te       -6.040000        3.020000       -6.040000
    Te       -3.020000        3.020000       -3.020000
    Sb       -3.020000        0.000000       -3.020000
    Te       -6.040000        0.000000       -3.020000
    Te        3.020000        6.040000       -6.040000
    Sb        3.020000       -9.059999       -6.040000
    Te        0.000000       -9.059999       -6.040000
    Ge        0.000000       -9.059999       -3.020000
    Te        3.020000       -9.059999       -3.020000
    Te        0.000000        6.040000       -3.020000
    Ge        6.040000        6.040000       -6.040000
    Te       -9.059999        6.040000       -6.040000
    Ge       -9.059999       -9.059999       -6.040000
    Te        6.040000       -9.059999       -6.040000
    Sb        6.040000       -9.059999       -3.020000
    Te       -9.059999       -9.059999       -3.020000
    Sb       -9.059999        6.040000       -3.020000
    Te        6.040000        6.040000       -3.020000
    Sb       -6.040000        6.040000       -6.040000
    Te       -3.020000        6.040000       -6.040000
    Sb       -3.020000       -9.059999       -6.040000
    Te       -6.040000       -9.059999       -6.040000
    Te       -3.020000       -9.059999       -3.020000
    Sb       -3.020000        6.040000       -3.020000
    Te       -6.040000        6.040000       -3.020000
    Ge        0.000000       -6.040000       -6.040000
    Te        3.020000       -6.040000       -6.040000
    Sb        3.020000       -3.020000       -6.040000
    Te        0.000000       -3.020000       -6.040000
    Sb        0.000000       -3.020000       -3.020000
    Te        3.020000       -3.020000       -3.020000
    Te        0.000000       -6.040000       -3.020000
    Sb        6.040000       -6.040000       -6.040000
    Te       -9.059999       -6.040000       -6.040000
    Sb       -9.059999       -3.020000       -6.040000
    Te        6.040000       -3.020000       -6.040000
    Sb        6.040000       -3.020000       -3.020000
    Te       -9.059999       -3.020000       -3.020000
    Te        6.040000       -6.040000       -3.020000
    Ge       -6.040000       -6.040000       -6.040000
    Te       -3.020000       -6.040000       -6.040000
    Sb       -3.020000       -3.020000       -6.040000
    Te       -6.040000       -3.020000       -6.040000
    Te       -3.020000       -3.020000       -3.020000
    Sb       -3.020000       -6.040000       -3.020000
    Te       -6.040000       -6.040000       -3.020000

